Circuit: * C:\Documents and Settings\Lorenzo\Desktop\AfCQ1\squarewavetl081.asc

Direct Newton iteration for .op point succeeded.
Date: Sat Dec 01 21:37:14 2007
Total elapsed time: 0.952 seconds.

tnom = 27
temp = 27
method = modified trap
totiter = 88176
traniter = 88173
tranpoints = 21809
accept = 15855
rejected = 5954
trancuriters = 0
matrix size = 12
fillins = 12
solver = Normal

