Circuit: * C:\Documents and Settings\Lorenzo\Desktop\Lab 3\Draft.asc

C2: increased Cpar to 1e-012
C1: increased Cpar to 1e-012
Limiting rise time of source v1 to 1e-005
Limiting fall time of source v1 to 1e-005
WARNING: Node N004 is floating.

Singular matrix:  Check node n004
   Iteration No. 1
Direct Newton iteration failed to find .op point.  (Use ".option noopiter" to skip.)
Starting Gmin stepping
Gmin = 10
Gmin = 1.07374
Gmin = 0.115292
Gmin = 0.0123794
Gmin = 0.00132923
Gmin = 0.000142725
Gmin = 1.5325e-005
Gmin = 1.6455e-006
Gmin = 1.76685e-007
Gmin = 1.89714e-008
Gmin = 2.03704e-009
Gmin = 2.18725e-010
Gmin = 2.34854e-011
Gmin = 2.52173e-012
Gmin = 2.70769e-013
Singular matrix:  Check node n004
   Iteration No. 2
Gmin = 0
Singular matrix:  Check node n004
   Iteration No. 1
Gmin stepping failed

Starting source stepping
Singular matrix:  Check node n004
   Iteration No. 1
Singular matrix:  Check node n004
   Iteration No. 2
Could not converge to DC with sources off!
Trouble finding operating point....skipping operating point for Transient analysis.
Date: Thu Dec 07 12:56:04 2006
Total elapsed time: 0.828 seconds.

tnom = 27
temp = 27
method = modified trap
totiter = 101597
traniter = 101026
tranpoints = 50514
accept = 47015
rejected = 3499
trancuriters = 0
matrix size = 5
fillins = 3
solver = Normal

