Circuit: * C:\Documents and Settings\Lorenzo\Desktop\Elettronica Industriale\Esercitazioni\Lab 4\Draft.asc

Limiting rise time of source v3 to 0.0005
Limiting fall time of source v3 to 0.0005
WARNING: Node N011 is floating.

Direct Newton iteration for .op point succeeded.
Date: Thu Jun 21 00:15:18 2007
Total elapsed time: 0.812 seconds.

tnom = 27
temp = 27
method = modified trap
totiter = 22539
traniter = 22520
tranpoints = 6266
accept = 4403
rejected = 1863
trancuriters = 0
matrix size = 31
fillins = 21
solver = Normal

